 Abaqus/Standard 2024                  DATE 22-Apr-2026 TIME 18:08:31
 SUMMARY OF JOB INFORMATION:
 STEP  INC ATT SEVERE EQUIL TOTAL  TOTAL      STEP       INC OF       DOF    IF
               DISCON ITERS ITERS  TIME/    TIME/LPF    TIME/LPF    MONITOR RIKS
               ITERS               FREQ
   1     1   1U    0     6     6  0.00       0.00       0.1000    
   1     1   2     0     4     4  0.0250     0.0250     0.02500   
   1     2   1U    0     4     4  0.0250     0.0250     0.02500   
   1     2   2     0     2     2  0.0312     0.0312     0.006250  
   1     3   1     0     4     4  0.0406     0.0406     0.009375  
   1     4   1     0     6     6  0.0547     0.0547     0.01406   
   1     5   1     0     5     5  0.0688     0.0688     0.01406   
   1     6   1     0     4     4  0.0828     0.0828     0.01406   
   1     7   1     0     4     4  0.0969     0.0969     0.01406   
   1     8   1     0     5     5  0.118      0.118      0.02109   
   1     9   1     0     4     4  0.139      0.139      0.02109   
   1    10   1U    0     4     4  0.139      0.139      0.02109   
   1    10   2     0     2     2  0.144      0.144      0.005273  
   1    11   1     0     3     3  0.152      0.152      0.007910  
   1    12   1     0     8     8  0.164      0.164      0.01187   
   1    13   1     0     4     4  0.176      0.176      0.01187   
   1    14   1     0     4     4  0.188      0.188      0.01187   
   1    15   1     0     4     4  0.206      0.206      0.01780   
   1    16   1     0     4     4  0.232      0.232      0.02670   
   1    17   1     0     4     4  0.272      0.272      0.04005   
   1    18   1     0     4     4  0.332      0.332      0.06007   
   1    19   1     0     4     4  0.423      0.423      0.09010   
   1    20   1     0     4     4  0.558      0.558      0.1352    
   1    21   1U    0     4     4  0.558      0.558      0.2027    
   1    21   2     0     2     2  0.608      0.608      0.05068   
   1    22   1     0     3     3  0.684      0.684      0.07602   
   1    23   1     0     3     3  0.798      0.798      0.1140    
   1    24   1     0     4     4  0.969      0.969      0.1711    
   1    25   1     0     1     1  1.00       1.00       0.03050   
   2     1   1     0     2     2  1.01       0.0100     0.01000   
   2     2   1     0     2     2  1.02       0.0200     0.01000   
   2     3   1     0     2     2  1.03       0.0350     0.01500   
   2     4   1     0     2     2  1.06       0.0575     0.02250   
   2     5   1     0     2     2  1.09       0.0912     0.03375   
   2     6   1     0     3     3  1.14       0.142      0.05063   
   2     7   1     0     4     4  1.22       0.218      0.07594   
   2     8   1     0     6     6  1.33       0.332      0.1139    
   2     9   1     0     8     8  1.45       0.446      0.1139    
   2    10   1U    0     5     5  1.45       0.446      0.1139    
   2    10   2     0     4     4  1.47       0.474      0.02848   
   2    11   1U    0     9     9  1.47       0.474      0.02848   
   2    11   2U    0     7     7  1.47       0.474      0.01424   
   2    11   3U    0     4     4  1.47       0.474      0.003560  
   2    11   4     0     4     4  1.47       0.475      0.0008899 
   2    12   1U    0     4     4  1.47       0.475      0.001335  
   2    12   2     0     4     4  1.48       0.475      0.0003337 
   2    13   1U    0     7     7  1.48       0.475      0.0005006 
   2    13   2     0     2     2  1.48       0.475      0.0001251 
   2    14   1     0     4     4  1.48       0.476      0.0001877 
   2    15   1U    0     5     5  1.48       0.476      0.0002816 
   2    15   2     0     2     2  1.48       0.476      7.039e-05 
   2    16   1     0     4     4  1.48       0.476      0.0001056 
   2    17   1U    0     5     5  1.48       0.476      0.0001584 
   2    17   2     0     2     2  1.48       0.476      3.960e-05 
   2    18   1     0     4     4  1.48       0.476      5.939e-05 
   2    19   1U    0     5     5  1.48       0.476      8.909e-05 
   2    19   2     0     3     3  1.48       0.476      2.227e-05 
   2    20   1U    0     9     9  1.48       0.476      3.341e-05 
   2    20   2     0     2     2  1.48       0.476      1.670e-05 
   2    21   1     0     8     8  1.48       0.476      2.506e-05 
   2    22   1U    0     5     5  1.48       0.476      2.506e-05 
   2    22   2     0     2     2  1.48       0.476      6.264e-06 
   2    23   1     0     1     1  1.48       0.476      6.264e-06 
   2    24   1     0     2     2  1.48       0.476      9.396e-06 
   2    25   1     0     2     2  1.48       0.476      1.409e-05 
   2    26   1U    0     9     9  1.48       0.476      2.114e-05 
   2    26   2     0     2     2  1.48       0.476      1.057e-05 
   2    27   1     0     3     3  1.48       0.476      1.586e-05 
   2    28   1U    0     9     9  1.48       0.476      2.378e-05 
   2    28   2     0     2     2  1.48       0.476      1.189e-05 
   2    29   1U    0     9     9  1.48       0.476      1.784e-05 
   2    29   2     0     2     2  1.48       0.476      8.919e-06 
   2    30   1     0     2     2  1.48       0.476      1.338e-05 
   2    31   1U    0     9     9  1.48       0.476      2.007e-05 
   2    31   2     0     2     2  1.48       0.476      1.003e-05 
   2    32   1     0     2     2  1.48       0.476      1.505e-05 
   2    33   1U    0     9     9  1.48       0.476      2.258e-05 
   2    33   2U    0     9     9  1.48       0.476      1.129e-05 
   2    33   3     0    10    10  1.48       0.476      5.644e-06 
   2    34   1     0     6     6  1.48       0.476      5.644e-06 
   2    35   1     0     4     4  1.48       0.476      5.644e-06 
   2    36   1     0     4     4  1.48       0.476      5.644e-06 
   2    37   1     0     4     4  1.48       0.476      8.466e-06 
   2    38   1     0     2     2  1.48       0.476      1.270e-05 
   2    39   1     0     6     6  1.48       0.476      1.905e-05 
   2    40   1     0     4     4  1.48       0.476      1.905e-05 
   2    41   1     0    11    11  1.48       0.476      1.905e-05 
   2    42   1U    0     5     5  1.48       0.476      1.429e-05 
   2    42   2     0     2     2  1.48       0.476      3.572e-06 
   2    43   1     0     2     2  1.48       0.476      3.572e-06 
   2    44   1     0     4     4  1.48       0.476      5.357e-06 
   2    45   1     0     3     3  1.48       0.476      8.036e-06 
   2    46   1     0     4     4  1.48       0.476      1.205e-05 
   2    47   1     0     6     6  1.48       0.476      1.808e-05 
   2    48   1     0     2     2  1.48       0.476      1.808e-05 
   2    49   1     0     2     2  1.48       0.476      1.808e-05 
   2    50   1     0     4     4  1.48       0.476      2.712e-05 
   2    51   1     0     4     4  1.48       0.476      4.068e-05 
   2    52   1     0     3     3  1.48       0.476      6.102e-05 
   2    53   1     0     1     1  1.48       0.477      9.154e-05 
   2    54   1     0     1     1  1.48       0.477      0.0001373 
   2    55   1     0     1     1  1.48       0.477      0.0002060 
   2    56   1     0     1     1  1.48       0.477      0.0003089 
   2    57   1     0     1     1  1.48       0.478      0.0004634 
   2    58   1     0     1     1  1.48       0.478      0.0006951 
   2    59   1     0     1     1  1.48       0.479      0.001043  
   2    60   1     0     1     1  1.48       0.481      0.001564  
   2    61   1     0     1     1  1.48       0.483      0.002346  
   2    62   1     0     2     2  1.49       0.487      0.003519  
   2    63   1     0     4     4  1.49       0.492      0.005279  
   2    64   1U    0     5     5  1.49       0.492      0.007918  
   2    64   2     0     4     4  1.49       0.494      0.001979  
   2    65   1     0     4     4  1.50       0.497      0.002969  
   2    66   1U    0     5     5  1.50       0.497      0.004454  
   2    66   2U    0     9     9  1.50       0.497      0.001113  
   2    66   3U    0     5     5  1.50       0.497      0.0002784 
   2    66   4     0     6     6  1.50       0.497      6.959e-05 
   2    67   1     0     2     2  1.50       0.497      6.959e-05 
   2    68   1     0     2     2  1.50       0.497      6.959e-05 
   2    69   1     0     2     2  1.50       0.497      0.0001044 
   2    70   1U    0     5     5  1.50       0.497      0.0001566 
   2    70   2U    0     5     5  1.50       0.497      3.914e-05 
   2    70   3     0     2     2  1.50       0.497      9.786e-06 
   2    71   1U    0     5     5  1.50       0.497      1.468e-05 
   2    71   2     0     1     1  1.50       0.497      3.670e-06 
   2    72   1     0     2     2  1.50       0.497      5.505e-06 
   2    73   1     0     2     2  1.50       0.497      8.257e-06 
   2    74   1U    0     9     9  1.50       0.497      1.239e-05 
   2    74   2     0     2     2  1.50       0.497      3.096e-06 
   2    75   1     0     8     8  1.50       0.497      4.645e-06 
   2    76   1     0     4     4  1.50       0.497      4.645e-06 
   2    77   1     0     4     4  1.50       0.497      4.645e-06 
   2    78   1     0     4     4  1.50       0.497      6.967e-06 
   2    79   1     0     2     2  1.50       0.497      1.045e-05 
   2    80   1     0     2     2  1.50       0.497      1.568e-05 
   2    81   1     0     2     2  1.50       0.497      2.351e-05 
   2    82   1     0     2     2  1.50       0.497      3.527e-05 
   2    83   1     0     1     1  1.50       0.498      5.290e-05 
   2    84   1     0     1     1  1.50       0.498      7.936e-05 
   2    85   1     0     1     1  1.50       0.498      0.0001190 
   2    86   1     0     1     1  1.50       0.498      0.0001786 
   2    87   1     0     1     1  1.50       0.498      0.0002678 
   2    88   1     0     1     1  1.50       0.499      0.0004017 
   2    89   1     0     1     1  1.50       0.499      0.0006026 
   2    90   1     0     1     1  1.50       0.500      0.0009039 
   2    91   1     0     1     1  1.50       0.501      0.001356  
   2    92   1     0     1     1  1.50       0.503      0.002034  
   2    93   1     0     1     1  1.51       0.507      0.003051  
   2    94   1     0     1     1  1.51       0.511      0.004576  
   2    95   1     0     2     2  1.52       0.518      0.006864  
   2    96   1     0     3     3  1.53       0.528      0.01030   
   2    97   1     0     4     4  1.54       0.544      0.01544   
   2    98   1     0     5     5  1.57       0.567      0.02317   
   2    99   1     0     4     4  1.59       0.590      0.02317   
   2   100   1     0     4     4  1.61       0.613      0.02317   
   2   101   1     0     2     2  1.65       0.648      0.03475   
   2   102   1     0     3     3  1.70       0.700      0.05212   
   2   103   1     0     4     4  1.78       0.778      0.07819   
   2   104   1     0     6     6  1.90       0.896      0.1173    
   2   105   1     0     6     6  2.00       1.00       0.1045    
   3     1   1     0     5     5  2.10       0.100      0.1000    
   3     2   1     0     6     6  2.20       0.200      0.1000    
   3     3   1     0     3     3  2.30       0.300      0.1000    
   3     4   1     0     3     3  2.40       0.400      0.1000    
   3     5   1     0     4     4  2.55       0.550      0.1500    
   3     6   1     0     4     4  2.78       0.775      0.2250    
   3     7   1     0     4     4  3.00       1.00       0.2250    
                          
 THE ANALYSIS HAS COMPLETED SUCCESSFULLY
